[TITLE]
;;Project Title/Notes

[OPTIONS]
;;Option             Value
FLOW_UNITS           CMS
INFILTRATION         HORTON
FLOW_ROUTING         DYNWAVE
LINK_OFFSETS         DEPTH
MIN_SLOPE            0
ALLOW_PONDING        YES
SKIP_STEADY_STATE    NO

START_DATE           12/19/2019
START_TIME           00:00:00
REPORT_START_DATE    12/19/2019
REPORT_START_TIME    00:00:00
END_DATE             12/19/2019
END_TIME             06:00:00
SWEEP_START          12/19
SWEEP_END            12/19
DRY_DAYS             0
REPORT_STEP          00:05:00
WET_STEP             00:00:30
DRY_STEP             00:10:00
ROUTING_STEP         0:00:30 
RULE_STEP            00:00:00

INERTIAL_DAMPING     NONE
NORMAL_FLOW_LIMITED  BOTH
FORCE_MAIN_EQUATION  D-W
VARIABLE_STEP        0.75
LENGTHENING_STEP     0
MIN_SURFAREA         1.167
MAX_TRIALS           8
HEAD_TOLERANCE       0.0015
SYS_FLOW_TOL         5
LAT_FLOW_TOL         5
MINIMUM_STEP         0.5
THREADS              1

[EVAPORATION]
;;Data Source    Parameters
;;-------------- ----------------
CONSTANT         0
DRY_ONLY         NO

[RAINGAGES]
;;Name           Format    Interval SCF      Source    
;;-------------- --------- ------ ------ ----------
RG1              VOLUME    0:10     1        TIMESERIES TS2             

[SUBCATCHMENTS]
;;Name           Rain Gage        Outlet           Area     %Imperv  Width    %Slope   CurbLen  SnowPack        
;;-------------- ---------------- ---------------- -------- -------- -------- -------- -------- ----------------
1                RG1              Node1            13.84    30       280      0.01     0                        
10078B           RG1              N6               3.002329012 70       124      0.01     0.0475671                 
1009B            RG1              Node8            10.36469643 70       128      0.01     0.0145416                 
1010B            RG1              Node11           3.554935839 70       122      0.01     0.065694                 
10252B           RG1              Node398          6.498731068 70       171      0.01     0.0302539                 
10340B           RG1              Node407          2.764349363 70       104      0.01     0.0515101                 
10428B           RG1              Node406          8.944208098 70       200      0.01     0.0658189                 
10516B           RG1              Node405          8.204280215 70       190      0.01     0.021461                 
10604B           RG1              Node388          5.414496337 70       140      0.01     0.0272272                 
10692B           RG1              Node390          5.379855215 70       147      0.01     0.0189243                 
11040B           RG1              Node394          2.915641224 70       93       0.01     0.00508204                 
11128B           RG1              Node395          2.071822352 70       75       0.01     0.0092845                 
11129B           RG1              Node397          1.221277598 70       77       0.01     0.0276094                 
11216B           RG1              Node414          3.510153286 70       120      0.01     0.106685                 
11304B           RG1              Node413          3.589524351 70       124      0.01     0.0269424                 
11650B           RG1              Node410          6.020108936 70       124      0.01     0.0110645                 
11738B           RG1              Node409          1.470378019 70       85       0.01     0.010546                 
11739B           RG1              Node393          1.487726908 70       74       0.01     0.00134076                 
11912B           RG1              Node423          3.053716041 70       113      0.01     0.0234309                 
12086B           RG1              Node421          2.732512715 70       107      0.01     0.0160083                 
12087B           RG1              Node418          3.683638128 70       93       0.01     0.0239806                 
12290B           RG1              Node478          2.774863105 70       113      0.01     0.124022                 
12465B           RG1              Node480          1.354362636 70       72       0.01     0.096446                 
12552B           RG1              Node488          0.586349545 70       51       0.01     0.0468286                 
12726B           RG1              Node487          2.007145435 70       91       0.01     0.0390451                 
12814B           RG1              Node484          1.248225639 70       65       0.01     0.0912074                 
12902B           RG1              Node482          1.345584997 70       65       0.01     0.0905722                 
12990B           RG1              Node469          2.346025445 70       103      0.01     0.0184049                 
13166B           RG1              Node465          1.778781126 70       87       0.01     0.0174112                 
13340B           RG1              Node463          2.471813994 70       110      0.01     0.0973156                 
13428B           RG1              Node462          1.277565374 70       68       0.01     0.117829                 
13688B           RG1              Node459          1.08211013 70       70       0.01     0.142917                 
13776B           RG1              Node455          0.728313394 70       58       0.01     0.137014                 
13950B           RG1              Node453          5.140766727 70       170      0.01     0.0733299                 
14124B           RG1              Node429          1.099673502 70       60       0.01     0.110609                 
14212B           RG1              Node451          0.770675925 70       56       0.01     0.1142                   
14386B           RG1              Node431          1.672437738 70       90       0.01     0.0937648                 
14474B           RG1              Node449          3.886304876 70       134      0.01     0.0892314                 
14911B           RG1              Node434          2.535932444 70       210      0.01     0.0755963                 
15173B           RG1              Node436          1.408950731 70       67       0.01     0.0443558                 
15261B           RG1              Node437          2.242757671 70       100      0.01     0.0725837                 
15349B           RG1              Node438          2.100421512 70       92       0.01     0.105279                 
15523B           RG1              Node443          3.954356874 70       130      0.01     0.0390506                 
15611B           RG1              Node441          3.186817266 70       120      0.01     0.0806967                 
15699B           RG1              Node477          1.298394562 70       142      0.01     0.0970763                 
15700B           RG1              Node476          4.485418218 70       140      0.01     0.115785                 
16073B           RG1              Node538          0.280902265 70       36       0.01     0.0484424                 
16074B           RG1              Node539          0.223903456 70       31       0.01     0.033108                 
16339B           RG1              Node530          0.283495898 70       36.91630318 0.01     0.031142                 
16340B           RG1              Node531          0.247038545 70       36       0.01     0.0174349                 
16871B           RG1              Node498          0.352064679 70       40       0.01     0.0202472                 
16872B           RG1              J3               0.305288239 70       38       0.01     0.0115681                 
17218B           RG1              Node494          1.311777528 70       76       0.01     0.0797523                 
17479B           RG1              Node525          1.739198788 70       63       0.01     0.102058                 
17566B           RG1              Node511          5.770215331 70       162      0.01     0.146345                 
17740B           RG1              Node509          0.618339974 70       55       0.01     0.164913                 
17828B           RG1              Node508          0.879904723 70       68       0.01     0.179479                 
18262B           RG1              Node519          0.498192747 70       30       0.01     0.0934906                 
18350B           RG1              Node518          1.074340159 70       62       0.01     0.0878982                 
18524B           RG1              Node521          3.330327015 70       126      0.01     0.176096                 
18525B           RG1              Node514          3.902030974 70       133      0.01     0.308869                 
18796B           RG1              Node555          0.322633485 70       40       0.01     0.0699115                 
18970B           RG1              Node559          1.233264398 70       60       0.01     0.128416                 
19057B           RG1              Node565          0.238019308 70       26       0.01     0.0787169                 
19403B           RG1              Node561          0.924557776 70       65       0.01     0.149521                 
19491B           RG1              Node560          1.231661841 70       84       0.01     0.140328                 
1B               RG1              Node4            59.19382591 30       441      0.01     0.0267141                 
2                RG1              Node1            11.5     30       283      0.01     0                        
2001             RG1              Node40           0.375211909 70       22       0.01     0.0512307                 
20056B           RG1              Node600          3.335786229 70       112      0.01     0.123567                 
2007             RG1              Node44           3.632060897 70       114      0.01     0.0837672                 
2008             RG1              Node48           1.532003603 70       90       0.01     0.181266                 
2009             RG1              Node46           1.845485519 70       95       0.01     0.15576                  
2014             RG1              Node42           0.969263439 70       65       0.01     0.256071                 
2015             RG1              Node41           1.933237631 70       97       0.01     0.117837                 
2016             RG1              Node38           0.231933236 70       20       0.01     0.00790431                 
2017             RG1              Node38           1.838217358 70       87       0.01     0.0683116                 
2065             RG1              Node128          0.374419534 70       36       0.01     0.0316461                 
20666B           RG1              Node596          4.217556555 70       130      0.01     0.0657661                 
2069             RG1              Node124          2.595538645 70       104      0.01     0.061915                 
206B             RG1              Node24           1.695059686 70       75       0.01     0.0799158                 
2071B            RG1              Node39           0.761246741 70       35       0.01     0.0575609                 
20754B           RG1              Node602          2.645412148 70       113      0.01     0.00925047                 
20755B           RG1              Node642          6.883020894 70       127      0.01     0.0633002                 
2076B            RG1              Node54           5.993318723 70       124      0.01     0.0112357                 
2083B            RG1              Node49           0.731809881 70       53       0.01     0.172336                 
208B             RG1              Node20           0.936823809 70       50       0.01     0.125004                 
2090B            RG1              Node172          3.653833004 70       115      0.01     0.0524598                 
2091B            RG1              Node56           0.482770164 70       40       0.01     0.126104                 
20929B           RG1              Node589          1.360501723 70       72       0.01     0.0259872                 
2096B            RG1              Node35           2.231050105 70       104      0.01     0.0506868                 
2097B            RG1              Node36           1.64205796 70       81       0.01     0.147429                 
2098B            RG1              Node108          1.065878174 70       64       0.01     0.0674422                 
2100B            RG1              Node107          1.475906029 70       77       0.01     0.0613403                 
2102B            RG1              Node105          0.191762485 70       25       0.01     0.17967                  
2104B            RG1              Node104          1.012419154 70       60       0.01     0.221778                 
2106B            RG1              Node103          0.416061723 70       42       0.01     0.230881                 
2108B            RG1              Node101          3.74536893 70       132      0.01     0.17597                  
2109B            RG1              Node100          15.03117116 70       201      0.01     0.0525207                 
210B             RG1              Node21           1.937434225 70       85       0.01     0.140875                 
21105B           RG1              Node587          1.641803008 70       90       0.01     0.0194195                 
2110B            RG1              Node99           6.242443424 70       140      0.01     0.146727                 
2116B            RG1              Node33           2.212422409 70       63       0.01     0.169849                 
2118B            RG1              Node94           5.426920197 70       153      0.01     0.180637                 
211B             RG1              Node22           1.987684086 70       50       0.01     0.0864225                 
2120B            RG1              Node93           4.14977165 70       120      0.01     0.103993                 
2124B            RG1              Node89           3.109603177 70       113      0.01     0.192637                 
2126B            RG1              Node84           0.886982681 70       60       0.01     0.0991261                 
21279B           RG1              Node585          3.412785835 70       120      0.01     0.0210352                 
2128B            RG1              Node87           0.931271517 70       60       0.01     0.150051                 
2130B            RG1              Node83           1.116504393 70       60       0.01     0.109966                 
2134B            RG1              Node71           1.465809114 70       83       0.01     0.115762                 
2136B            RG1              Node78           0.405422529 70       40       0.01     0.11893                  
213B             RG1              Node27           3.192656885 70       40.63759844 0.01     0.0342996                 
2140B            RG1              Node80           0.831649964 70       51       0.01     0.0542637                 
2141B            RG1              Node75           1.325718961 70       66       0.01     0.0644902                 
2142B            RG1              Node68           1.772399227 70       53       0.01     0.0256942                 
2146B            RG1              Node65           1.870199693 70       97       0.01     0.0416597                 
2148B            RG1              Node64           4.51888575 70       135      0.01     0.0905617                 
2150B            RG1              Node61           0.930688769 70       53       0.01     0.0449595                 
2153B            RG1              Node34           0.309634162 70       30       0.01     0.0994836                 
2154B            RG1              Node134          1.79911255 70       68.7272691 0.01     0.0388676                 
2158B            RG1              Node132          0.737536188 70       38       0.01     0.102516                 
2160B            RG1              Node114          3.078195497 70       117      0.01     0.104738                 
2162B            RG1              Node130          3.639907758 70       125      0.01     0.122164                 
2166B            RG1              Node119          0.99845344 70       69       0.01     0.125932                 
2170B            RG1              Node123          1.025049404 70       75       0.01     0.151055                 
2173B            RG1              Node142          0.676041 70       35       0.01     0.189342                 
2174B            RG1              Node163          0.742287202 70       52       0.01     0.0200714                 
2176B            RG1              Node162          0.670645639 70       47       0.01     0.154499                 
2178B            RG1              Node161          0.409101124 70       35       0.01     0.1381                   
21799B           RG1              Node617          0.324504349 70       38       0.01     0.020637                 
21800B           RG1              Node616          0.436550976 70       46       0.01     0.0185816                 
2180B            RG1              Node155          0.444810617 70       43       0.01     0.122646                 
2182B            RG1              Node153          1.497010404 70       67       0.01     0.110766                 
2186B            RG1              Node169          0.87530749 70       25.02237326 0.01     0.103229                 
22059B           RG1              Node631          4.551058287 70       136      0.01     0.0272106                 
22147B           RG1              Node632          2.953208226 70       103      0.01     0.0201835                 
22148B           RG1              Node633          2.072627677 70       102      0.01     0.0586187                 
22235B           RG1              Node635          1.068415555 70       69       0.01     0.0254799                 
22323B           RG1              Node636          1.020670701 70       68       0.01     0.0277292                 
22324B           RG1              Node638          2.588569952 70       111      0.01     0.0221922                 
22584B           RG1              Node627          2.112521623 70       95       0.01     0.0215263                 
22671B           RG1              Node628          0.749251848 70       55       0.01     0.0176964                 
22672B           RG1              Node626          2.380824394 70       101      0.01     0.0212088                 
22759B           RG1              Node607          1.1727517 70       58       0.01     0.0205719                 
23019B           RG1              Node576          1.760699755 70       78       0.01     0.0153187                 
23020B           RG1              Node578          1.680462662 70       80       0.01     0.0152141                 
3                RG1              Node4            12.01    30       173      0.01     0                        
24               RG1              Node415          15.6     30       375      0.01     0                        
25               RG1              N21              14.86    30       372      0.01     0                        
26               RG1              N23              14.24    30       347      0.01     0                        
27               RG1              N33              39.91    30       566      0.01     0                        
28               RG1              N13              13.71    30       316      0.01     0                        
29               RG1              N9               23.15    30       530      0.01     0                        
30               RG1              N34              14.25    30       258      0.01     0                        
3050B            RG1              Node237          0.740494443 70       60       0.01     0.0907                   
31               RG1              N20              9.16     30       182      0.01     0                        
3144B            RG1              Node233          6.809165699 70       120      0.01     0.131218                 
3176B            RG1              Node229          2.460875332 70       100      0.01     0.112623                 
32               RG1              N10              14.05    30       338      0.01     0                        
3238B            RG1              Node226          3.351144063 70       112      0.01     0.0844568                 
329              RG1              Node217          0.572703533 70       45       0.01     0.0867207                 
3332B            RG1              Node219          1.36274773 70       69       0.01     0.0755568                 
3644B            RG1              Node248          1.329272104 70       60       0.01     0.0290475                 
3708B            RG1              Node245          2.02475737 70       95       0.01     0.0433748                 
3740B            RG1              Node244          0.793386903 70       60       0.01     0.0410974                 
3986B            RG1              Node202          2.876180292 70       36.50848537 0.01     0.0635949                 
4                RG1              Node2            8.57     30       120      0.01     0                        
4233B            RG1              Node196          1.562779973 70       72       0.01     0.0800091                 
4357B            RG1              Node190          1.666128684 70       90       0.01     0.0836819                 
4481B            RG1              Node187          0.407733286 70       44       0.01     0.110705                 
4482B            RG1              Node186          0.546617474 70       51       0.01     0.0962792                 
4637B            RG1              Node182          0.200265747 70       22       0.01     0.101676                 
4669B            RG1              Node174          0.738042046 70       58       0.01     0.116861                 
4791B            RG1              Node178          0.126981564 70       30       0.01     0.114965                 
4792B            RG1              Node179          0.344297136 70       39       0.01     0.0971581                 
4823B            RG1              Node267          0.793374762 70       55       0.01     0.121273                 
4885B            RG1              Node263          0.059268288 70       13       0.01     0.101676                 
4886B            RG1              Node265          0.402607937 70       41       0.01     0.0937559                 
5                RG1              Node3            8.27     30       278      0.01     0                        
5102B            RG1              Node276          0.543788719 70       40       0.01     0.070051                 
5268B            RG1              Node318          1.111603645 70       75       0.01     0.0781219                 
5325B            RG1              Node317          1.641879899 70       88       0.01     0.0761253                 
5493B            RG1              Node315          0.273687523 70       40       0.01     0.0617265                 
5549B            RG1              Node295          0.488795938 70       47       0.01     0.0759259                 
5606B            RG1              Node299          0.55182983 70       44       0.01     0.0741706                 
5830B            RG1              Node294          0.37244588 70       42       0.01     0.0745999                 
6012             RG1              Node360          1.81215558 70       85       0.01     0.0839639                 
6781B            RG1              Node270          0.823038246 70       65       0.01     0.0718263                 
7001             RG1              Node419          2.213296531 70       93       0.01     0.0953041                 
7006B            RG1              Node323          0.920644463 70       33       0.01     0.0646654                 
7118B            RG1              Node328          0.25769676 70       33       0.01     0.0734744                 
7174B            RG1              Node338          0.309572649 70       35       0.01     0.0884135                 
7233B            RG1              Node341          0.224293978 70       32       0.01     0.0817684                 
7318B            RG1              Node339          0.588093742 70       54       0.01     0.0928877                 
7399B            RG1              Node346          0.188302015 70       30       0.01     0.10236                  
7507B            RG1              Node348          0.093664575 70       30       0.01     0.108683                 
7508B            RG1              Node349          0.335192106 70       40       0.01     0.0955567                 
7616B            RG1              Node333          0.326872571 70       40       0.01     0.100197                 
7780B            RG1              Node357          3.443841438 70       130      0.01     0.335823                 
7835B            RG1              Node354          0.190348916 70       132      0.01     0.139367                 
7836B            RG1              Node355          8.306868116 70       204      0.01     0.144505                 
7B               RG1              Node12           4.248798314 70       148      0.01     0.00881216                 
8317B            RG1              Node366          2.471012716 70       90       0.01     0.12838                  
8400B            RG1              Node381          1.721866087 70       92       0.01     0.218539                 
8484B            RG1              Node377          4.322208354 70       141      0.01     0.0300964                 
8652B            RG1              Node379          0.424624879 70       36       0.01     0.193928                 
8736B            RG1              Node376          3.576125198 70       127      0.01     0.126651                 
8902B            RG1              Node374          4.964890191 70       137      0.01     0.149926                 
9000             RG1              Node549          0.490912446 70       42       0.01     0.0606061                 
9001             RG1              Node545          0.538078599 70       44       0.01     0.0530542                 
9068B            RG1              Node385          1.598736324 70       90       0.01     0.0845958                 
9318B            RG1              Node371          1.096966153 70       62       0.01     0.162338                 
9501             RG1              Node570          0.369440682 70       37       0.01     0.0785925                 
9504             RG1              Node569          0.243092452 70       34       0.01     0.0745987                 
9566B            RG1              Node362          1.446954793 70       75       0.01     0.13962                  
9601             RG1              Node613          1.515658335 70       84       0.01     0.0268363                 
9602             RG1              Node623          1.748992189 70       27.48255417 0.01     0.0247287                 
9606             RG1              Node573          3.025545848 70       120      0.01     0.0212432                 
9621             RG1              Node646          5.923955542 70       155      0.01     0.0652932                 
9622             RG1              Node640          1.270803071 70       89       0.01     0.0126502                 
9624             RG1              Node644          1.670228153 70       65       0.01     0.0223865                 
9625             RG1              Node583          6.706415923 70       170      0.01     0.0216566                 
9650B            RG1              Node369          2.857471659 70       123      0.01     0.0520566                 
9707B            RG1              Node339          0.251270347 70       35       0.01     0.0894527                 
S1               RG1              Node150          1.35549  70       35       0.01     0.113203                 
S10              RG1              Node558          0.36118  70       38       0.01     0.104136                 
S11              RG1              Node556          0.54681  70       45       0.01     0.0969096                 
S12              RG1              Node493          0.78022  70       60       0.01     0.150359                 
S13              RG1              Node506          1.49727  70       75       0.01     0.135303                 
S14              RG1              Node485          0.30401  70       34       0.01     0.094986                 
S15              RG1              Node445          0.56654  70       40       0.01     0.0422113                 
S16              RG1              Node449          2.71202  70       110      0.01     0.0946371                 
S17              RG1              Node7            2.23719  70       97       0.01     0.0742891                 
S18              RG1              Node77           2.50454  70       90       0.01     0.0779591                 
S19              RG1              Node380          1.79475  70       100      0.01     0.303004                 
S2               RG1              Node153          0.47929  70       48       0.01     0.122772                 
S20              RG1              Node412          2.95745  70       95       0.01     0.0197061                 
S21              RG1              J1               1.10062  70       56       0.01     0.0196385                 
S22              RG1              Node593          1.09833  70       67       0.01     0.0144337                 
S23              RG1              Node591          2.06581  70       86       0.01     0.0217655                 