[TITLE]
;;Project Title/Notes

[OPTIONS]
;;Option             Value
FLOW_UNITS           CMS
INFILTRATION         MODIFIED_GREEN_AMPT
FLOW_ROUTING         KINWAVE
LINK_OFFSETS         DEPTH
MIN_SLOPE            0
ALLOW_PONDING        NO
SKIP_STEADY_STATE    NO

START_DATE           09/04/2019
START_TIME           00:00:00
REPORT_START_DATE    09/04/2019
REPORT_START_TIME    00:00:00
END_DATE             09/04/2019
END_TIME             06:00:00
SWEEP_START          1/1
SWEEP_END            12/31
DRY_DAYS             0
REPORT_STEP          00:15:00
WET_STEP             00:05:00
DRY_STEP             01:00:00
ROUTING_STEP         0:00:30 
RULE_STEP            00:00:00

INERTIAL_DAMPING     PARTIAL
NORMAL_FLOW_LIMITED  BOTH
FORCE_MAIN_EQUATION  H-W
VARIABLE_STEP        0.75
LENGTHENING_STEP     0
MIN_SURFAREA         0
MAX_TRIALS           0
HEAD_TOLERANCE       0
SYS_FLOW_TOL         5
LAT_FLOW_TOL         5
MINIMUM_STEP         0.5
THREADS              1

[EVAPORATION]
;;Data Source    Parameters
;;-------------- ----------------
CONSTANT         0.0
DRY_ONLY         NO

[RAINGAGES]
;;Name           Format    Interval SCF      Source    
;;-------------- --------- ------ ------ ----------
SAVAR            VOLUME    0:15     1.0      TIMESERIES TS5RPCLIMATECHANGE

[SUBCATCHMENTS]
;;Name           Rain Gage        Outlet           Area     %Imperv  Width    %Slope   CurbLen  SnowPack        
;;-------------- ---------------- ---------------- -------- -------- -------- -------- -------- ----------------
S1               SAVAR            J2               2.44     30       156      0.05     0                        
S2               SAVAR            J4               4.13     30       202      0.05     0                        
S3               SAVAR            J3               6.58     30       256      0.05     0                        
S4               SAVAR            J135             2.39     30       154      0.05     0                        
S5               SAVAR            J81              2.42     30       155      0.05     0                        
S6               SAVAR            J82              1.83     30       135      0.05     0                        
S7               SAVAR            J91              5.60     30       235      0.05     0                        
S8               SAVAR            J23              5.32     30       230      0.05     0                        
S9               SAVAR            J24              4.69     30       216      0.05     0                        
S10              SAVAR            J92              3.29     30       181      0.05     0                        
S11              SAVAR            J25              3.05     30       174      0.05     0                        
S12              SAVAR            J26              3.68     30       191      0.05     0                        
S13              SAVAR            J27              1.44     45       118      0.05     0                        
S14              SAVAR            J92              1.99     30       142      0.05     0                        
S15              SAVAR            J122             2.06     30       143      0.05     0                        
S16              SAVAR            J82              3.23     30       179      0.05     0                        
S17              SAVAR            J91              2.58     30       160      0.05     0                        
S18              SAVAR            J121             1.98     30       140      0.05     0                        
S19              SAVAR            J83              3.35     30       183      0.05     0                        
S20              SAVAR            J84              3.10     30       176      0.05     0                        
S21              SAVAR            J85              2.50     30       158      0.05     0                        
S22              SAVAR            J121             2.62     30       161      0.05     0                        
S23              SAVAR            J90              3.06     30       174      0.05     0                        
S24              SAVAR            J89              2.23     30       149      0.05     0                        
S25              SAVAR            J88              1.29     30       113      0.05     0                        
S26              SAVAR            J27              1.03     45       100      0.05     0                        
S27              SAVAR            J128             1.31     30       114      0.05     0                        
S28              SAVAR            J123             1.45     30       120      0.05     0                        
S29              SAVAR            J122             1.76     30       132      0.05     0                        
S30              SAVAR            J89              1.49     30       120      0.05     0                        
S31              SAVAR            J144             0.91     30       90       0.05     0                        
S32              SAVAR            J143             0.69     30       83       0.05     0                        
S33              SAVAR            J141             0.42     30       72       0.05     0                        
S34              SAVAR            J77              0.73     30       85       0.05     0                        
S35              SAVAR            J78              1.20     30       109      0.05     0                        
S36              SAVAR            J79              1.16     30       108      0.05     0                        
S37              SAVAR            J88              1.59     30       126      0.05     0                        
S38              SAVAR            J85              1.22     30       110      0.05     0                        
S39              SAVAR            J90              0.85     30       91       0.05     0                        
S40              SAVAR            J144             0.70     30       83       0.05     0                        
S41              SAVAR            J143             0.37     30       61       0.05     0                        
S42              SAVAR            J140             0.52     30       73       0.05     0                        
S43              SAVAR            J139             0.72     30       83       0.05     0                        
S44              SAVAR            J86              0.62     30       80       0.05     0                        
S45              SAVAR            J139             0.98     30       97       0.05     0                        
S46              SAVAR            J76              1.31     30       113      0.05     0                        
S47              SAVAR            J140             0.48     30       70       0.05     0                        
S48              SAVAR            J146             0.56     30       72       0.05     0                        
S49              SAVAR            J77              0.64     30       80       0.05     0                        
S50              SAVAR            J28              1.14     30       106      0.05     0                        
S51              SAVAR            J128             0.88     45       89       0.05     0                        
S52              SAVAR            J27              0.85     45       91       0.05     0                        
S53              SAVAR            J29              0.78     45       87       0.05     0                        
S54              SAVAR            DV3              0.74     30       86       0.05     0                        
S55              SAVAR            J88              0.80     30       90       0.05     0                        
S56              SAVAR            J28              0.86     45       93       0.05     0                        
S57              SAVAR            J4               3.07     30       175      0.05     0                        
S58              SAVAR            J5               3.70     30       192      0.05     0                        
S59              SAVAR            OUT17            3.42     30       184      0.05     0                        
S60              SAVAR            J23              5.67     30       238      0.05     0                        
S61              SAVAR            J62              7.19     30       268      0.05     0                        
S62              SAVAR            J24              4.41     30       210      0.05     0                        
S63              SAVAR            J64              4.35     30       208      0.05     0                        
S64              SAVAR            J25              2.53     45       159      0.05     0                        
S65              SAVAR            J120             3.17     45       178      0.05     0                        
S66              SAVAR            J65              1.87     45       136      0.05     0                        
S67              SAVAR            J66              1.55     45       124      0.05     0                        
S68              SAVAR            J119             1.09     45       104      0.05     0                        
S69              SAVAR            J61              0.99     45       99       0.05     0                        
S70              SAVAR            J118             0.65     45       81       0.05     0                        
S71              SAVAR            J68              0.93     45       96       0.05     0                        
S72              SAVAR            J33              0.53     45       72       0.05     0                        
S73              SAVAR            J34              0.55     45       72       0.05     0                        
S74              SAVAR            J124             2.45     45       156      0.05     0                        
S75              SAVAR            J124             1.51     45       122      0.05     0                        
S76              SAVAR            J127             2.67     45       163      0.05     0                        
S77              SAVAR            J119             2.18     45       147      0.05     0                        
S78              SAVAR            J118             1.51     45       122      0.05     0                        
S79              SAVAR            J33              1.14     45       106      0.05     0                        
S80              SAVAR            J27              2.18     45       147      0.05     0                        
S81              SAVAR            J126             1.24     45       111      0.05     0                        
S82              SAVAR            J32              0.81     45       90       0.05     0                        
S83              SAVAR            J28              1.11     45       105      0.05     0                        
S84              SAVAR            J28              1.08     45       103      0.05     0                        
S85              SAVAR            J32              0.93     45       96       0.05     0                        
S86              SAVAR            J29              1.05     45       102      0.05     0                        
S87              SAVAR            J44              0.89     45       94       0.05     0                        
S88              SAVAR            J32              0.94     45       96       0.05     0                        
S89              SAVAR            J48              0.89     45       94       0.05     0                        
S90              SAVAR            J48              0.71     45       83       0.05     0                        
S91              SAVAR            J44              0.69     45       82       0.05     0                        
S92              SAVAR            J45              0.71     45       83       0.05     0                        
S93              SAVAR            J49              1.22     45       110      0.05     0                        
S94              SAVAR            J46              0.88     45       89       0.05     0                        
S95              SAVAR            OUT7             1.85     45       136      0.05     0                        
S96              SAVAR            J47              0.78     45       88       0.05     0                        
S97              SAVAR            OUT6             1.82     30       134      0.05     0                        
S98              SAVAR            J29              1.78     45       130      0.05     0                        
S99              SAVAR            J44              0.94     45       96       0.05     0                        
S100             SAVAR            J45              0.83     45       91       0.05     0                        
S101             SAVAR            J30              1.51     45       123      0.05     0                        
S102             SAVAR            J46              1.52     45       122      0.05     0                        
S103             SAVAR            J31              0.97     30       98       0.05     0                        
S104             SAVAR            J47              1.51     30       121      0.05     0                        
S105             SAVAR            OUT4             2.95     30       172      0.05     0                        
S106             SAVAR            OUT6             3.51     30       187      0.05     0                        
S107             SAVAR            J29              1.68     45       129      0.05     0                        
S108             SAVAR            J30              2.10     45       144      0.05     0                        
S109             SAVAR            J31              1.41     30       118      0.05     0                        
S110             SAVAR            OUT4             1.34     30       114      0.05     0                        
S111             SAVAR            J79              1.97     30       140      0.05     0                        
S112             SAVAR            J78              1.63     30       127      0.05     0                        
S113             SAVAR            J77              0.90     30       94       0.05     0                        
S114             SAVAR            J145             0.44     30       66       0.05     0                        
S115             SAVAR            OUT14            1.00     30       100      0.05     0                        
S116             SAVAR            J146             0.89     30       89       0.05     0                        
S117             SAVAR            OUT14            1.74     30       131      0.05     0                        
S118             SAVAR            OUT10            1.92     30       131      0.05     0                        
S119             SAVAR            J147             1.13     30       107      0.05     0                        
S120             SAVAR            J76              0.73     30       85       0.05     0                        
S121             SAVAR            J87              0.65     30       80       0.05     0                        
S122             SAVAR            J33              2.21     45       148      0.05     0                        
S123             SAVAR            J34              3.12     45       176      0.05     0                        
S124             SAVAR            J54              1.42     45       119      0.05     0                        
S125             SAVAR            J48              2.02     45       141      0.05     0                        
S126             SAVAR            J53              2.37     45       153      0.05     0                        
S127             SAVAR            J49              1.53     45       123      0.05     0                        
S128             SAVAR            OUT9             1.89     45       135      0.05     0                        
S129             SAVAR            OUT7             2.20     45       148      0.05     0                        
S130             SAVAR            J55              0.72     45       83       0.05     0                        
S131             SAVAR            J61              1.13     45       106      0.05     0                        
S132             SAVAR            J150             1.10     45       105      0.05     0                        
S133             SAVAR            J67              1.09     45       103      0.05     0                        
S134             SAVAR            J149             0.83     45       90       0.05     0                        
S135             SAVAR            J68              0.61     45       78       0.05     0                        
S136             SAVAR            J148             0.53     45       72       0.05     0                        
S137             SAVAR            J34              0.54     45       73       0.05     0                        
S138             SAVAR            J35              0.51     45       71       0.05     0                        
S139             SAVAR            J150             0.47     45       70       0.05     0                        
S140             SAVAR            J56              0.51     45       71       0.05     0                        
S141             SAVAR            J149             0.74     45       86       0.05     0                        
S142             SAVAR            J155             0.65     45       80       0.05     0                        
S143             SAVAR            J148             0.47     45       67       0.05     0                        
S144             SAVAR            J153             0.51     45       70       0.05     0                        
S145             SAVAR            J35              0.53     45       71       0.05     0                        
S146             SAVAR            J54              0.50     45       70       0.05     0                        
S147             SAVAR            J151             0.19     45       42       0.05     0                        
S148             SAVAR            J54              0.98     45       98       0.05     0                        
S149             SAVAR            J36              0.94     45       94       0.05     0                        
S150             SAVAR            J50              1.03     45       101      0.05     0                        
S151             SAVAR            J52              1.12     45       104      0.05     0                        
S152             SAVAR            J51              0.94     45       95       0.05     0                        
S153             SAVAR            J53              0.93     45       94       0.05     0                        
S154             SAVAR            OUT8             1.08     30       102      0.05     0                        
S155             SAVAR            OUT9             1.01     30       100      0.05     0                        
S156             SAVAR            J57              0.82     45       90       0.05     0                        
S157             SAVAR            J58              1.27     45       112      0.05     0                        
S158             SAVAR            J59              0.85     30       92       0.05     0                        
S159             SAVAR            J22              0.55     30       73       0.05     0                        
S160             SAVAR            J60              0.97     30       95       0.05     0                        
S161             SAVAR            J40              1.55     30       124      0.05     0                        
S162             SAVAR            J154             1.65     45       128      0.05     0                        
S163             SAVAR            J38              1.50     30       123      0.05     0                        
S164             SAVAR            J153             1.47     45       121      0.05     0                        
S165             SAVAR            J152             0.55     45       73       0.05     0                        
S166             SAVAR            J36              0.80     45       90       0.05     0                        
S167             SAVAR            J38              1.61     30       126      0.05     0                        
S168             SAVAR            ST11             13.28    30       364      0.05     0                        
S169             SAVAR            OUT17            2.69     30       164      0.05     0                        
S170             SAVAR            J7               2.13     30       146      0.05     0                        
S171             SAVAR            J62              2.19     30       146      0.05     0                        
S172             SAVAR            J63              1.74     30       131      0.05     0                        
S173             SAVAR            J64              1.48     30       121      0.05     0                        
S174             SAVAR            J65              0.58     45       76       0.05     0                        
S175             SAVAR            J71              1.85     30       136      0.05     0                        
S176             SAVAR            J72              2.11     45       136      0.05     0                        
S177             SAVAR            J66              1.74     45       131      0.05     0                        
S178             SAVAR            J61              2.04     45       142      0.05     0                        
S179             SAVAR            J55              1.77     45       133      0.05     0                        
S180             SAVAR            J57              1.87     45       136      0.05     0                        
S181             SAVAR            ST2              2.69     30       164      0.05     0                        
S182             SAVAR            J73              1.82     30       134      0.05     0                        
S183             SAVAR            J72              1.29     30       113      0.05     0                        
S184             SAVAR            J21              1.17     30       108      0.05     0                        
S185             SAVAR            J22              1.39     30       117      0.05     0                        
S186             SAVAR            J60              1.31     30       114      0.05     0                        
S187             SAVAR            J59              1.10     30       104      0.05     0                        
S188             SAVAR            J58              0.60     45       77       0.05     0                        
S189             SAVAR            J57              0.74     45       86       0.05     0                        
S190             SAVAR            J7               2.59     30       160      0.05     0                        
S191             SAVAR            J8               2.56     30       160      0.05     0                        
S192             SAVAR            J69              3.41     30       184      0.05     0                        
S193             SAVAR            J19              3.04     30       174      0.05     0                        
S194             SAVAR            J70              2.65     30       161      0.05     0                        
S195             SAVAR            J71              1.42     30       119      0.05     0                        
S196             SAVAR            J73              1.79     30       133      0.05     0                        
S197             SAVAR            J74              2.79     30       167      0.05     0                        
S198             SAVAR            J75              1.49     30       122      0.05     0                        
S199             SAVAR            J20              0.81     30       90       0.05     0                        
S200             SAVAR            J21              0.54     30       72       0.05     0                        
S201             SAVAR            OUT1             3.63     30       190      0.05     0                        
S202             SAVAR            OUT3             3.19     30       178      0.05     0                        
S203             SAVAR            J19              2.00     30       141      0.05     0                        
S204             SAVAR            J20              2.27     30       150      0.05     0                        
S205             SAVAR            OUT3             2.43     30       154      0.05     0                        
S206             SAVAR            OUT5             2.75     30       165      0.05     0                        
S207             SAVAR            J22              1.99     30       141      0.05     0                        
S208             SAVAR            J40              1.40     30       118      0.05     0                        
S209             SAVAR            J43              0.80     30       90       0.05     0                        
S210             SAVAR            J39              1.14     30       106      0.05     0                        
S211             SAVAR            J41              0.56     30       73       0.05     0                        
S212             SAVAR            J38              0.65     30       80       0.05     0                        
S213             SAVAR            OUT5             3.82     30       195      0.05     0                        
S214             SAVAR            OUT8             3.77     30       194      0.05     0                        
S215             SAVAR            J43              2.24     30       151      0.05     0                        
S216             SAVAR            J41              2.30     30       151      0.05     0                        
S217             SAVAR            J37              1.71     30       130      0.05     0                        
S218             SAVAR            J51              0.91     30       95       0.05     0                        
S219             SAVAR            ST3              13.89    30       372      0.05     0                        
S220             SAVAR            J94              1.43     30       139      0.05     0                        
S221             SAVAR            J93              2.40     30       154      0.05     0                        
S222             SAVAR            J4               1.90     30       137      0.05     0                        
S223             SAVAR            ST4              4.09     30       201      0.05     0                        
S224             SAVAR            J93              3.23     30       179      0.05     0                        
S225             SAVAR            J94              2.56     30       160      0.05     0                        
S226             SAVAR            J96              2.04     30       141      0.05     0                        
S227             SAVAR            DV4              2.40     30       154      0.05     0                        
S228             SAVAR            J129             2.32     30       153      0.05     0                        
S229             SAVAR            J13              2.62     30       161      0.05     0                        
S230             SAVAR            J4               2.92     30       170      0.05     0                        
S231             SAVAR            J13              1.53     30       123      0.05     0                        
S232             SAVAR            J14              1.27     30       112      0.05     0                        
S233             SAVAR            J129             1.52     30       123      0.05     0                        
S234             SAVAR            J136             1.36     30       116      0.05     0                        
S235             SAVAR            DV4              1.31     30       114      0.05     0                        
S236             SAVAR            J113             0.96     30       97       0.05     0                        
S237             SAVAR            J96              1.22     30       110      0.05     0                        
S238             SAVAR            J97              0.69     30       83       0.05     0                        
S239             SAVAR            ST5              3.67     30       191      0.05     0                        
S240             SAVAR            J15              0.73     30       85       0.05     0                        
S241             SAVAR            J14              1.55     30       124      0.05     0                        
S242             SAVAR            J16              1.43     30       119      0.05     0                        
S243             SAVAR            ST6              2.80     30       167      0.05     0                        
S244             SAVAR            J136             0.90     30       94       0.05     0                        
S245             SAVAR            J113             1.14     30       106      0.05     0                        
S246             SAVAR            J137             0.88     30       93       0.05     0                        
S247             SAVAR            J114             0.82     30       90       0.05     0                        
S248             SAVAR            J138             1.96     30       142      0.05     0                        
S249             SAVAR            J99              1.74     30       131      0.05     0                        